test/benchmarks/psse/MultiGen/FourBusMulti.raw
0,   100.00,  32, 0, 1, 60.00     / PSS(R)E 32 RAW created by rawd32  THU, APR 21 2022  18:45


   101,'BUS 1       ', 230.0000,3,   1,   1,   1,1.02000,   0.0000
   102,'BUS 2 LV    ',  20.0000,2,   1,   1,   1,1.02000,   2.3318
   103,'BUS 2 HV    ', 230.0000,1,   1,   1,   1,1.01888,   1.0369
   104,'BUS 3       ', 230.0000,1,   1,   1,   1,1.01634,  -1.0415
 0 /End of Bus data, Begin Load data
   104,'2 ',1,   1,   1,  4700.000,   470.000,     0.000,     0.000,     0.000,     0.000,   1,1
 0 /End of Load data, Begin Fixed shunt data
 0 /End of Fixed shunt data, Begin Generator data
   101,'1 ',     3.000,   419.227, 10000.000,-10000.000,1.02000,     0,   100.000, 0.00000E+0, 2.50000E-1, 0.00000E+0, 0.00000E+0,1.00000,1,  100.0,   318.000,     0.000,   1,1.0000
   102,'EG',   473.000,    28.393,   728.000,  -728.000,1.02000,     0,  2292.000, 0.00000E+0, 2.00000E-1, 0.00000E+0, 0.00000E+0,1.00000,1,  100.0,  2177.400,     0.000,   1,1.0000
   102,'ND',     0.000,     0.000,     0.500,     0.000,1.02000,     0,   100.000, 0.00000E+0, 2.00000E-1, 0.00000E+0, 0.00000E+0,1.00000,1,  100.0,     0.000, -1006.000,   1,1.0000
   102,'RG',  1096.000,    65.790,  1902.000, -1902.000,1.02000,     0,  5451.000, 0.00000E+0, 2.00000E-1, 0.00000E+0, 0.00000E+0,1.00000,1,  100.0,  5178.450,     0.000,   1,1.0000
   102,'S ',   221.000,    13.266,   800.000,  -800.000,1.02000,     0,  1146.000, 0.00000E+0, 2.00000E-1, 0.00000E+0, 0.00000E+0,1.00000,1,  100.0,  1088.700,     0.000,   1,1.0000,    ,      ,    ,      ,    ,      ,1, 1.0000
   102,'SG',   861.000,    51.684,  2301.000, -2301.000,1.02000,     0,  4110.000, 0.00000E+0, 2.00000E-1, 0.00000E+0, 0.00000E+0,1.00000,1,  100.0,  3904.500,     0.000,   1,1.0000
   102,'SH',   206.000,    12.366,   659.000,  -659.000,1.02000,     0,  1460.000, 0.00000E+0, 2.00000E-1, 0.00000E+0, 0.00000E+0,1.00000,1,  100.0,  1387.000,     0.000,   1,1.0000
   102,'SW',   664.000,    39.858,   561.000,  -561.000,1.02000,     0,  3210.000, 0.00000E+0, 2.00000E-1, 0.00000E+0, 0.00000E+0,1.00000,1,  100.0,  3049.500,     0.000,   1,1.0000,    ,      ,    ,      ,    ,      ,1, 1.0000
   102,'WG',  1176.000,    70.592,  1910.000, -1910.000,1.02000,     0,  5817.000, 0.00000E+0, 2.00000E-1, 0.00000E+0, 0.00000E+0,1.00000,1,  100.0,  5526.150,     0.000,   1,1.0000
 0 /End of Generator data, Begin Branch data
   101,    103,'1 ', 0.00000E+0, 1.20000E-3,   0.15250,  250.00,  250.00,  250.00,  0.00000,  0.00000,  0.00000,  0.00000,1,1,   0.00,   1,1.0000
   101,    104,'1 ', 0.00000E+0, 1.20000E-3,   0.15250,  250.00,  250.00,  250.00,  0.00000,  0.00000,  0.00000,  0.00000,1,1,   0.00,   1,1.0000
   103,    104,'1 ', 0.00000E+0, 1.20000E-3,   0.15250,  250.00,  250.00,  250.00,  0.00000,  0.00000,  0.00000,  0.00000,1,1,   0.00,   1,1.0000
 0 /End of Branch data, Begin Transformer data
   102,   103,     0,'1 ',1,1,1, 0.00000E+0, 0.00000E+0,2,'                                        ',1,   1,1.0000
 0.00000E+0, 5.00000E-4,   100.00
1.00000,   0.000,   0.000,     0.00,     0.00,     0.00, 0,      0, 1.10000, 0.90000, 1.10000, 0.90000, 999, 0, 0.00000, 0.00000,  0.000
1.00000,   0.000
 0 /End of Transformer data, Begin Area interchange data
 0 /End of Area interchange data, Begin Two-terminal dc line data
 0 /End of Two-terminal dc line data, Begin VSC dc line data
 0 /End of VSC dc line data, Begin Impedance correction table data
 0 /End of Impedance correction table data, Begin Multi-terminal dc line data
 0 /End of Multi-terminal dc line data, Begin Multi-section line data
 0 /End of Multi-section line data, Begin Zone data
 0 /End of Zone data, Begin Inter-area transfer data
 0 /End of Inter-area transfer data, Begin Owner data
 0 /End of Owner data, Begin FACTS device data
 0 /End of FACTS device data, Begin Switched shunt data
 0 /End of Switched shunt data, Begin GNE device data
 0 /End of GNE device data
Q
